<?xml version='1.0' encoding='UTF-8'?>
<configuration>
  <input>
    <net-file value="net.net.xml" />
    <route-files value="route_temp_16928_2740395668880_56022132.rou.xml" />
    <gui-settings-file value="gui-settings.xml" />
  </input>
  <time>
    <begin value="0" />
  </time>
  <report>
    <verbose value="true" />
  </report>
</configuration>