<?xml version='1.0' encoding='UTF-8'?>
<routes>
  <vTypeDistribution id="civilianMix">
    <vType id="moto" vClass="motorcycle" accel="2.6" decel="4.5" length="1.9" minGap="1.0" maxSpeed="16.0" sigma="0.5" speedFactor="normc(1.0,0.12,0.7,1.3)" color="0,255,0" probability="0.50" />
    <vType id="car" vClass="passenger" accel="2.6" decel="4.5" length="4.5" minGap="2.5" maxSpeed="20.0" sigma="0.5" speedFactor="normc(1.0,0.10,0.7,1.3)" color="255,0,0" probability="0.20" />
    <vType id="truck" vClass="truck" accel="1.3" decel="3.0" length="7.5" minGap="3.0" maxSpeed="16.0" sigma="0.6" speedFactor="normc(0.95,0.08,0.7,1.2)" color="255,165,0" probability="0.15" />
    <vType id="bus" vClass="bus" accel="1.2" decel="3.0" length="12.0" minGap="3.0" maxSpeed="16.0" sigma="0.6" speedFactor="normc(0.95,0.08,0.7,1.2)" color="0,128,255" probability="0.10" />
    <vType id="container" vClass="truck" accel="0.9" decel="2.5" length="14.0" minGap="3.5" maxSpeed="14.0" sigma="0.7" speedFactor="normc(0.9,0.07,0.7,1.15)" color="128,64,0" probability="0.04" />
    <vType id="emergency" vClass="emergency" accel="3.0" decel="5.0" length="5.0" minGap="1.5" maxSpeed="25.0" sigma="0.3" speedFactor="normc(1.1,0.05,0.9,1.2)" color="255,0,255" probability="0.01" />
  </vTypeDistribution>
  <route id="r_N_to_S" edges="N_in S_out" />
  <route id="r_N_to_E" edges="N_in E_out" />
  <route id="r_N_to_W" edges="N_in W_out" />
  <route id="r_N_to_N" edges="N_in N_out" />
  <route id="r_S_to_N" edges="S_in N_out" />
  <route id="r_S_to_W" edges="S_in W_out" />
  <route id="r_S_to_E" edges="S_in E_out" />
  <route id="r_S_to_S" edges="S_in S_out" />
  <route id="r_E_to_W" edges="E_in W_out" />
  <route id="r_E_to_S" edges="E_in S_out" />
  <route id="r_E_to_N" edges="E_in N_out" />
  <route id="r_E_to_E" edges="E_in E_out" />
  <route id="r_W_to_E" edges="W_in E_out" />
  <route id="r_W_to_N" edges="W_in N_out" />
  <route id="r_W_to_S" edges="W_in S_out" />
  <route id="r_W_to_W" edges="W_in W_out" />
  <flow id="flow_1_phase1_N_straight" type="civilianMix" route="r_N_to_S" begin="0" end="900" vehsPerHour="247.31094967126847" departLane="random" departSpeed="random" departPos="random_free" />
  <flow id="flow_2_phase1_N_left" type="civilianMix" route="r_N_to_E" begin="0" end="900" vehsPerHour="102.29054688215255" departLane="random" departSpeed="random" departPos="random_free" />
  <flow id="flow_3_phase1_N_right" type="civilianMix" route="r_N_to_W" begin="0" end="900" vehsPerHour="97.7917387664318" departLane="random" departSpeed="random" departPos="random_free" />
  <flow id="flow_4_phase1_N_uturn" type="civilianMix" route="r_N_to_N" begin="0" end="900" vehsPerHour="50.616001898050314" departLane="random" departSpeed="random" departPos="random_free" />
  <flow id="flow_5_phase1_S_straight" type="civilianMix" route="r_S_to_N" begin="0" end="900" vehsPerHour="252.67423464059829" departLane="random" departSpeed="random" departPos="random_free" />
  <flow id="flow_6_phase1_S_left" type="civilianMix" route="r_S_to_N" begin="0" end="900" vehsPerHour="99.92646732330323" departLane="random" departSpeed="random" departPos="random_free" />
  <flow id="flow_7_phase1_S_right" type="civilianMix" route="r_S_to_E" begin="0" end="900" vehsPerHour="102.87274557948113" departLane="random" departSpeed="random" departPos="random_free" />
  <flow id="flow_8_phase1_S_uturn" type="civilianMix" route="r_E_to_N" begin="0" end="900" vehsPerHour="50.70421382188797" departLane="random" departSpeed="random" departPos="random_free" />
  <flow id="flow_9_phase1_E_straight" type="civilianMix" route="r_E_to_W" begin="0" end="900" vehsPerHour="259.59004946947096" departLane="random" departSpeed="random" departPos="random_free" />
  <flow id="flow_10_phase1_E_left" type="civilianMix" route="r_N_to_E" begin="0" end="900" vehsPerHour="99.78532824516297" departLane="random" departSpeed="random" departPos="random_free" />
  <flow id="flow_11_phase1_E_right" type="civilianMix" route="r_E_to_W" begin="0" end="900" vehsPerHour="102.89038796424866" departLane="random" departSpeed="random" departPos="random_free" />
  <flow id="flow_12_phase1_E_uturn" type="civilianMix" route="r_S_to_S" begin="0" end="900" vehsPerHour="50.79242574572563" departLane="random" departSpeed="random" departPos="random_free" />
  <flow id="flow_13_phase1_W_straight" type="civilianMix" route="r_W_to_E" begin="0" end="900" vehsPerHour="249.76324115395545" departLane="random" departSpeed="random" departPos="random_free" />
  <flow id="flow_14_phase1_W_left" type="civilianMix" route="r_W_to_N" begin="0" end="900" vehsPerHour="96.98018906712532" departLane="random" departSpeed="random" departPos="random_free" />
  <flow id="flow_15_phase1_W_right" type="civilianMix" route="r_N_to_N" begin="0" end="900" vehsPerHour="101.79656010866165" departLane="random" departSpeed="random" departPos="random_free" />
  <flow id="flow_16_phase1_W_uturn" type="civilianMix" route="r_S_to_N" begin="0" end="900" vehsPerHour="50.492505204677585" departLane="random" departSpeed="random" departPos="random_free" />
  <flow id="flow_17_phase2a_N_straight" type="civilianMix" route="r_N_to_S" begin="900" end="1500" vehsPerHour="494.63954172730445" departLane="random" departSpeed="random" departPos="random_free" />
  <flow id="flow_18_phase2a_N_left" type="civilianMix" route="r_N_to_E" begin="900" end="1500" vehsPerHour="204.56345137953758" departLane="random" departSpeed="random" departPos="random_free" />
  <flow id="flow_19_phase2a_N_right" type="civilianMix" route="r_E_to_E" begin="900" end="1500" vehsPerHour="195.5834775328636" departLane="random" departSpeed="random" departPos="random_free" />
  <flow id="flow_20_phase2a_N_uturn" type="civilianMix" route="r_N_to_N" begin="900" end="1500" vehsPerHour="101.23200379610063" departLane="random" departSpeed="random" departPos="random_free" />
  <flow id="flow_21_phase2a_S_straight" type="civilianMix" route="r_N_to_E" begin="900" end="1500" vehsPerHour="505.3661116659641" departLane="random" departSpeed="random" departPos="random_free" />
  <flow id="flow_22_phase2a_S_left" type="civilianMix" route="r_E_to_S" begin="900" end="1500" vehsPerHour="199.85293464660646" departLane="random" departSpeed="random" departPos="random_free" />
  <flow id="flow_23_phase2a_S_right" type="civilianMix" route="r_S_to_E" begin="900" end="1500" vehsPerHour="205.74549115896227" departLane="random" departSpeed="random" departPos="random_free" />
  <flow id="flow_24_phase2a_S_uturn" type="civilianMix" route="r_W_to_E" begin="900" end="1500" vehsPerHour="101.42607002854348" departLane="random" departSpeed="random" departPos="random_free" />
  <flow id="flow_25_phase2a_E_straight" type="civilianMix" route="r_E_to_W" begin="900" end="1500" vehsPerHour="519.1977413237096" departLane="random" departSpeed="random" departPos="random_free" />
  <flow id="flow_26_phase2a_E_left" type="civilianMix" route="r_S_to_E" begin="900" end="1500" vehsPerHour="199.57065649032594" departLane="random" departSpeed="random" departPos="random_free" />
  <flow id="flow_27_phase2a_E_right" type="civilianMix" route="r_E_to_S" begin="900" end="1500" vehsPerHour="205.78077592849732" departLane="random" departSpeed="random" departPos="random_free" />
  <flow id="flow_28_phase2a_E_uturn" type="civilianMix" route="r_E_to_E" begin="900" end="1500" vehsPerHour="101.58485149145126" departLane="random" departSpeed="random" departPos="random_free" />
  <flow id="flow_29_phase2a_W_straight" type="civilianMix" route="r_S_to_S" begin="900" end="1500" vehsPerHour="499.5088399231434" departLane="random" departSpeed="random" departPos="random_free" />
  <flow id="flow_30_phase2a_W_left" type="civilianMix" route="r_W_to_N" begin="900" end="1500" vehsPerHour="193.96037813425065" departLane="random" departSpeed="random" departPos="random_free" />
  <flow id="flow_31_phase2a_W_right" type="civilianMix" route="r_N_to_E" begin="900" end="1500" vehsPerHour="203.57547783255578" departLane="random" departSpeed="random" departPos="random_free" />
  <flow id="flow_32_phase2a_W_uturn" type="civilianMix" route="r_W_to_W" begin="900" end="1500" vehsPerHour="100.96736802458763" departLane="random" departSpeed="random" departPos="random_free" />
  <flow id="flow_33_phase2b_N_straight" type="civilianMix" route="r_N_to_S" begin="1500" end="2100" vehsPerHour="618.2950165629386" departLane="random" departSpeed="random" departPos="random_free" />
  <flow id="flow_34_phase2b_N_left" type="civilianMix" route="r_N_to_E" begin="1500" end="2100" vehsPerHour="255.70872482061387" departLane="random" departSpeed="random" departPos="random_free" />
  <flow id="flow_35_phase2b_N_right" type="civilianMix" route="r_N_to_S" begin="1500" end="2100" vehsPerHour="244.4881681084633" departLane="random" departSpeed="random" departPos="random_free" />
  <flow id="flow_36_phase2b_N_uturn" type="civilianMix" route="r_N_to_N" begin="1500" end="2100" vehsPerHour="126.53118355274201" departLane="random" departSpeed="random" departPos="random_free" />
  <flow id="flow_37_phase2b_S_straight" type="civilianMix" route="r_S_to_N" begin="1500" end="2100" vehsPerHour="631.7032289862633" departLane="random" departSpeed="random" departPos="random_free" />
  <flow id="flow_38_phase2b_S_left" type="civilianMix" route="r_N_to_S" begin="1500" end="2100" vehsPerHour="249.81616830825806" departLane="random" departSpeed="random" departPos="random_free" />
  <flow id="flow_39_phase2b_S_right" type="civilianMix" route="r_E_to_W" begin="1500" end="2100" vehsPerHour="257.1906851410866" departLane="random" departSpeed="random" departPos="random_free" />
  <flow id="flow_40_phase2b_S_uturn" type="civilianMix" route="r_S_to_S" begin="1500" end="2100" vehsPerHour="126.77817693948745" departLane="random" departSpeed="random" departPos="random_free" />
  <flow id="flow_41_phase2b_E_straight" type="civilianMix" route="r_S_to_W" begin="1500" end="2100" vehsPerHour="648.992766058445" departLane="random" departSpeed="random" departPos="random_free" />
  <flow id="flow_42_phase2b_E_left" type="civilianMix" route="r_E_to_N" begin="1500" end="2100" vehsPerHour="249.4633206129074" departLane="random" departSpeed="random" departPos="random_free" />
  <flow id="flow_43_phase2b_E_right" type="civilianMix" route="r_E_to_N" begin="1500" end="2100" vehsPerHour="257.22596991062164" departLane="random" departSpeed="random" departPos="random_free" />
  <flow id="flow_44_phase2b_E_uturn" type="civilianMix" route="r_E_to_E" begin="1500" end="2100" vehsPerHour="126.98988555669786" departLane="random" departSpeed="random" departPos="random_free" />
  <flow id="flow_45_phase2b_W_straight" type="civilianMix" route="r_W_to_E" begin="1500" end="2100" vehsPerHour="624.3992816925049" departLane="random" departSpeed="random" departPos="random_free" />
  <flow id="flow_46_phase2b_W_left" type="civilianMix" route="r_W_to_N" begin="1500" end="2100" vehsPerHour="242.44165147542952" departLane="random" departSpeed="random" departPos="random_free" />
  <flow id="flow_47_phase2b_W_right" type="civilianMix" route="r_W_to_S" begin="1500" end="2100" vehsPerHour="254.4737578868866" departLane="random" departSpeed="random" departPos="random_free" />
  <flow id="flow_48_phase2b_W_uturn" type="civilianMix" route="r_W_to_W" begin="1500" end="2100" vehsPerHour="126.21362062692643" departLane="random" departSpeed="random" departPos="random_free" />
  <flow id="flow_49_phase2c_N_straight" type="civilianMix" route="r_N_to_S" begin="2100" end="2700" vehsPerHour="741.9504913985729" departLane="random" departSpeed="random" departPos="random_free" />
  <flow id="flow_50_phase2c_N_left" type="civilianMix" route="r_N_to_E" begin="2100" end="2700" vehsPerHour="306.85399826169015" departLane="random" departSpeed="random" departPos="random_free" />
  <flow id="flow_51_phase2c_N_right" type="civilianMix" route="r_W_to_N" begin="2100" end="2700" vehsPerHour="293.39285868406296" departLane="random" departSpeed="random" departPos="random_free" />
  <flow id="flow_52_phase2c_N_uturn" type="civilianMix" route="r_N_to_N" begin="2100" end="2700" vehsPerHour="151.8303633093834" departLane="random" departSpeed="random" departPos="random_free" />
  <flow id="flow_53_phase2c_S_straight" type="civilianMix" route="r_S_to_N" begin="2100" end="2700" vehsPerHour="758.0403463065625" departLane="random" departSpeed="random" departPos="random_free" />
  <flow id="flow_54_phase2c_S_left" type="civilianMix" route="r_W_to_W" begin="2100" end="2700" vehsPerHour="299.77940196990966" departLane="random" departSpeed="random" departPos="random_free" />
  <flow id="flow_55_phase2c_S_right" type="civilianMix" route="r_S_to_E" begin="2100" end="2700" vehsPerHour="308.6182367384434" departLane="random" departSpeed="random" departPos="random_free" />
  <flow id="flow_56_phase2c_S_uturn" type="civilianMix" route="r_E_to_N" begin="2100" end="2700" vehsPerHour="152.13028385043145" departLane="random" departSpeed="random" departPos="random_free" />
  <flow id="flow_57_phase2c_E_straight" type="civilianMix" route="r_S_to_N" begin="2100" end="2700" vehsPerHour="778.7877907931805" departLane="random" departSpeed="random" departPos="random_free" />
  <flow id="flow_58_phase2c_E_left" type="civilianMix" route="r_E_to_S" begin="2100" end="2700" vehsPerHour="299.3559847354889" departLane="random" departSpeed="random" departPos="random_free" />
  <flow id="flow_59_phase2c_E_right" type="civilianMix" route="r_N_to_S" begin="2100" end="2700" vehsPerHour="308.671163892746" departLane="random" departSpeed="random" departPos="random_free" />
  <flow id="flow_60_phase2c_E_uturn" type="civilianMix" route="r_E_to_E" begin="2100" end="2700" vehsPerHour="152.3949196219444" departLane="random" departSpeed="random" departPos="random_free" />
  <flow id="flow_61_phase2c_W_straight" type="civilianMix" route="r_N_to_N" begin="2100" end="2700" vehsPerHour="749.2720810770988" departLane="random" departSpeed="random" departPos="random_free" />
  <flow id="flow_62_phase2c_W_left" type="civilianMix" route="r_W_to_N" begin="2100" end="2700" vehsPerHour="290.92292481660843" departLane="random" departSpeed="random" departPos="random_free" />
  <flow id="flow_63_phase2c_W_right" type="civilianMix" route="r_W_to_S" begin="2100" end="2700" vehsPerHour="305.37203794121746" departLane="random" departSpeed="random" departPos="random_free" />
  <flow id="flow_64_phase2c_W_uturn" type="civilianMix" route="r_W_to_W" begin="2100" end="2700" vehsPerHour="151.4598732292652" departLane="random" departSpeed="random" departPos="random_free" />
  <flow id="flow_65_phase3_N_straight" type="civilianMix" route="r_N_to_S" begin="2700" end="3600" vehsPerHour="247.31094967126847" departLane="random" departSpeed="random" departPos="random_free" />
  <flow id="flow_66_phase3_N_left" type="civilianMix" route="r_N_to_S" begin="2700" end="3600" vehsPerHour="102.29054688215255" departLane="random" departSpeed="random" departPos="random_free" />
  <flow id="flow_67_phase3_N_right" type="civilianMix" route="r_N_to_W" begin="2700" end="3600" vehsPerHour="97.7917387664318" departLane="random" departSpeed="random" departPos="random_free" />
  <flow id="flow_68_phase3_N_uturn" type="civilianMix" route="r_N_to_N" begin="2700" end="3600" vehsPerHour="50.616001898050314" departLane="random" departSpeed="random" departPos="random_free" />
  <flow id="flow_69_phase3_S_straight" type="civilianMix" route="r_W_to_S" begin="2700" end="3600" vehsPerHour="252.67423464059829" departLane="random" departSpeed="random" departPos="random_free" />
  <flow id="flow_70_phase3_S_left" type="civilianMix" route="r_S_to_W" begin="2700" end="3600" vehsPerHour="99.92646732330323" departLane="random" departSpeed="random" departPos="random_free" />
  <flow id="flow_71_phase3_S_right" type="civilianMix" route="r_W_to_S" begin="2700" end="3600" vehsPerHour="102.87274557948113" departLane="random" departSpeed="random" departPos="random_free" />
  <flow id="flow_72_phase3_S_uturn" type="civilianMix" route="r_S_to_S" begin="2700" end="3600" vehsPerHour="50.70421382188797" departLane="random" departSpeed="random" departPos="random_free" />
  <flow id="flow_73_phase3_E_straight" type="civilianMix" route="r_E_to_W" begin="2700" end="3600" vehsPerHour="259.59004946947096" departLane="random" departSpeed="random" departPos="random_free" />
  <flow id="flow_74_phase3_E_left" type="civilianMix" route="r_E_to_S" begin="2700" end="3600" vehsPerHour="99.78532824516297" departLane="random" departSpeed="random" departPos="random_free" />
  <flow id="flow_75_phase3_E_right" type="civilianMix" route="r_E_to_N" begin="2700" end="3600" vehsPerHour="102.89038796424866" departLane="random" departSpeed="random" departPos="random_free" />
  <flow id="flow_76_phase3_E_uturn" type="civilianMix" route="r_E_to_E" begin="2700" end="3600" vehsPerHour="50.79242574572563" departLane="random" departSpeed="random" departPos="random_free" />
  <flow id="flow_77_phase3_W_straight" type="civilianMix" route="r_W_to_E" begin="2700" end="3600" vehsPerHour="249.76324115395545" departLane="random" departSpeed="random" departPos="random_free" />
  <flow id="flow_78_phase3_W_left" type="civilianMix" route="r_N_to_W" begin="2700" end="3600" vehsPerHour="96.98018906712532" departLane="random" departSpeed="random" departPos="random_free" />
  <flow id="flow_79_phase3_W_right" type="civilianMix" route="r_S_to_E" begin="2700" end="3600" vehsPerHour="101.79656010866165" departLane="random" departSpeed="random" departPos="random_free" />
  <flow id="flow_80_phase3_W_uturn" type="civilianMix" route="r_W_to_W" begin="2700" end="3600" vehsPerHour="50.492505204677585" departLane="random" departSpeed="random" departPos="random_free" />
</routes>