<?xml version='1.0' encoding='UTF-8'?>
<routes>
  <vTypeDistribution id="civilianMix">
    <vType id="moto" vClass="motorcycle" accel="2.6" decel="4.5" length="1.9" minGap="1.0" maxSpeed="16.0" sigma="0.5" speedFactor="normc(1.0,0.12,0.7,1.3)" color="0,255,0" probability="0.50" />
    <vType id="car" vClass="passenger" accel="2.6" decel="4.5" length="4.5" minGap="2.5" maxSpeed="20.0" sigma="0.5" speedFactor="normc(1.0,0.10,0.7,1.3)" color="255,0,0" probability="0.20" />
    <vType id="truck" vClass="truck" accel="1.3" decel="3.0" length="7.5" minGap="3.0" maxSpeed="16.0" sigma="0.6" speedFactor="normc(0.95,0.08,0.7,1.2)" color="255,165,0" probability="0.15" />
    <vType id="bus" vClass="bus" accel="1.2" decel="3.0" length="12.0" minGap="3.0" maxSpeed="16.0" sigma="0.6" speedFactor="normc(0.95,0.08,0.7,1.2)" color="0,128,255" probability="0.10" />
    <vType id="container" vClass="truck" accel="0.9" decel="2.5" length="14.0" minGap="3.5" maxSpeed="14.0" sigma="0.7" speedFactor="normc(0.9,0.07,0.7,1.15)" color="128,64,0" probability="0.04" />
    <vType id="emergency" vClass="emergency" accel="3.0" decel="5.0" length="5.0" minGap="1.5" maxSpeed="25.0" sigma="0.3" speedFactor="normc(1.1,0.05,0.9,1.2)" color="255,0,255" probability="0.01" />
  </vTypeDistribution>
  <route id="r_N_to_S" edges="N_in S_out" />
  <route id="r_N_to_E" edges="N_in E_out" />
  <route id="r_N_to_W" edges="N_in W_out" />
  <route id="r_N_to_N" edges="N_in N_out" />
  <route id="r_S_to_N" edges="S_in N_out" />
  <route id="r_S_to_W" edges="S_in W_out" />
  <route id="r_S_to_E" edges="S_in E_out" />
  <route id="r_S_to_S" edges="S_in S_out" />
  <route id="r_E_to_W" edges="E_in W_out" />
  <route id="r_E_to_S" edges="E_in S_out" />
  <route id="r_E_to_N" edges="E_in N_out" />
  <route id="r_E_to_E" edges="E_in E_out" />
  <route id="r_W_to_E" edges="W_in E_out" />
  <route id="r_W_to_N" edges="W_in N_out" />
  <route id="r_W_to_S" edges="W_in S_out" />
  <route id="r_W_to_W" edges="W_in W_out" />
  <flow id="flow_1_phase1_N_straight" type="civilianMix" route="r_N_to_S" begin="0" end="900" vehsPerHour="242.87666642665863" departLane="random" departSpeed="random" departPos="random_free" />
  <flow id="flow_2_phase1_N_left" type="civilianMix" route="r_N_to_E" begin="0" end="900" vehsPerHour="100.45647823810577" departLane="random" departSpeed="random" departPos="random_free" />
  <flow id="flow_3_phase1_N_right" type="civilianMix" route="r_N_to_W" begin="0" end="900" vehsPerHour="96.03833371400833" departLane="random" departSpeed="random" departPos="random_free" />
  <flow id="flow_4_phase1_N_uturn" type="civilianMix" route="r_N_to_N" begin="0" end="900" vehsPerHour="49.70845741033554" departLane="random" departSpeed="random" departPos="random_free" />
  <flow id="flow_5_phase1_S_straight" type="civilianMix" route="r_S_to_N" begin="0" end="900" vehsPerHour="248.14378774166107" departLane="random" departSpeed="random" departPos="random_free" />
  <flow id="flow_6_phase1_S_left" type="civilianMix" route="r_S_to_W" begin="0" end="900" vehsPerHour="98.13478660583496" departLane="random" departSpeed="random" departPos="random_free" />
  <flow id="flow_7_phase1_S_right" type="civilianMix" route="r_S_to_E" begin="0" end="900" vehsPerHour="101.02823811769485" departLane="random" departSpeed="random" departPos="random_free" />
  <flow id="flow_8_phase1_S_uturn" type="civilianMix" route="r_S_to_S" begin="0" end="900" vehsPerHour="49.795087695121765" departLane="random" departSpeed="random" departPos="random_free" />
  <flow id="flow_9_phase1_E_straight" type="civilianMix" route="r_E_to_W" begin="0" end="900" vehsPerHour="254.93560206890103" departLane="random" departSpeed="random" departPos="random_free" />
  <flow id="flow_10_phase1_E_left" type="civilianMix" route="r_E_to_S" begin="0" end="900" vehsPerHour="97.996178150177" departLane="random" departSpeed="random" departPos="random_free" />
  <flow id="flow_11_phase1_E_right" type="civilianMix" route="r_E_to_N" begin="0" end="900" vehsPerHour="101.0455641746521" departLane="random" departSpeed="random" departPos="random_free" />
  <flow id="flow_12_phase1_E_uturn" type="civilianMix" route="r_E_to_E" begin="0" end="900" vehsPerHour="49.88171797990799" departLane="random" departSpeed="random" departPos="random_free" />
  <flow id="flow_13_phase1_W_straight" type="civilianMix" route="r_W_to_E" begin="0" end="900" vehsPerHour="245.28498834371567" departLane="random" departSpeed="random" departPos="random_free" />
  <flow id="flow_14_phase1_W_left" type="civilianMix" route="r_W_to_N" begin="0" end="900" vehsPerHour="95.24133509397507" departLane="random" departSpeed="random" departPos="random_free" />
  <flow id="flow_15_phase1_W_right" type="civilianMix" route="r_W_to_S" begin="0" end="900" vehsPerHour="99.97134864330292" departLane="random" departSpeed="random" departPos="random_free" />
  <flow id="flow_16_phase1_W_uturn" type="civilianMix" route="r_W_to_W" begin="0" end="900" vehsPerHour="49.58717501163483" departLane="random" departSpeed="random" departPos="random_free" />
  <flow id="flow_17_phase2a_N_straight" type="civilianMix" route="r_N_to_S" begin="900" end="1500" vehsPerHour="485.7706589102745" departLane="random" departSpeed="random" departPos="random_free" />
  <flow id="flow_18_phase2a_N_left" type="civilianMix" route="r_E_to_W" begin="900" end="1500" vehsPerHour="200.8956304192543" departLane="random" departSpeed="random" departPos="random_free" />
  <flow id="flow_19_phase2a_N_right" type="civilianMix" route="r_N_to_W" begin="900" end="1500" vehsPerHour="192.07666742801666" departLane="random" departSpeed="random" departPos="random_free" />
  <flow id="flow_20_phase2a_N_uturn" type="civilianMix" route="r_N_to_N" begin="900" end="1500" vehsPerHour="99.41691482067108" departLane="random" departSpeed="random" departPos="random_free" />
  <flow id="flow_21_phase2a_S_straight" type="civilianMix" route="r_S_to_N" begin="900" end="1500" vehsPerHour="496.3049015402794" departLane="random" departSpeed="random" departPos="random_free" />
  <flow id="flow_22_phase2a_S_left" type="civilianMix" route="r_S_to_W" begin="900" end="1500" vehsPerHour="196.26957321166992" departLane="random" departSpeed="random" departPos="random_free" />
  <flow id="flow_23_phase2a_S_right" type="civilianMix" route="r_S_to_E" begin="900" end="1500" vehsPerHour="202.0564762353897" departLane="random" departSpeed="random" departPos="random_free" />
  <flow id="flow_24_phase2a_S_uturn" type="civilianMix" route="r_S_to_S" begin="900" end="1500" vehsPerHour="99.60750144720078" departLane="random" departSpeed="random" departPos="random_free" />
  <flow id="flow_25_phase2a_E_straight" type="civilianMix" route="r_E_to_W" begin="900" end="1500" vehsPerHour="509.8885301947594" departLane="random" departSpeed="random" departPos="random_free" />
  <flow id="flow_26_phase2a_E_left" type="civilianMix" route="r_E_to_S" begin="900" end="1500" vehsPerHour="195.992356300354" departLane="random" departSpeed="random" departPos="random_free" />
  <flow id="flow_27_phase2a_E_right" type="civilianMix" route="r_E_to_N" begin="900" end="1500" vehsPerHour="202.0911283493042" departLane="random" departSpeed="random" departPos="random_free" />
  <flow id="flow_28_phase2a_E_uturn" type="civilianMix" route="r_E_to_E" begin="900" end="1500" vehsPerHour="99.76343595981598" departLane="random" departSpeed="random" departPos="random_free" />
  <flow id="flow_29_phase2a_W_straight" type="civilianMix" route="r_W_to_E" begin="900" end="1500" vehsPerHour="490.5526506304741" departLane="random" departSpeed="random" departPos="random_free" />
  <flow id="flow_30_phase2a_W_left" type="civilianMix" route="r_W_to_N" begin="900" end="1500" vehsPerHour="190.48267018795013" departLane="random" departSpeed="random" departPos="random_free" />
  <flow id="flow_31_phase2a_W_right" type="civilianMix" route="r_W_to_S" begin="900" end="1500" vehsPerHour="199.9253712296486" departLane="random" departSpeed="random" departPos="random_free" />
  <flow id="flow_32_phase2a_W_uturn" type="civilianMix" route="r_W_to_W" begin="900" end="1500" vehsPerHour="99.15702396631241" departLane="random" departSpeed="random" departPos="random_free" />
  <flow id="flow_33_phase2b_N_straight" type="civilianMix" route="r_N_to_S" begin="1500" end="2100" vehsPerHour="607.2089921236038" departLane="random" departSpeed="random" departPos="random_free" />
  <flow id="flow_34_phase2b_N_left" type="civilianMix" route="r_N_to_E" begin="1500" end="2100" vehsPerHour="251.1238695383072" departLane="random" departSpeed="random" departPos="random_free" />
  <flow id="flow_35_phase2b_N_right" type="civilianMix" route="r_E_to_E" begin="1500" end="2100" vehsPerHour="240.10449731349948" departLane="random" departSpeed="random" departPos="random_free" />
  <flow id="flow_36_phase2b_N_uturn" type="civilianMix" route="r_N_to_N" begin="1500" end="2100" vehsPerHour="124.26248049736023" departLane="random" departSpeed="random" departPos="random_free" />
  <flow id="flow_37_phase2b_S_straight" type="civilianMix" route="r_S_to_N" begin="1500" end="2100" vehsPerHour="620.3767954111099" departLane="random" departSpeed="random" departPos="random_free" />
  <flow id="flow_38_phase2b_S_left" type="civilianMix" route="r_S_to_W" begin="1500" end="2100" vehsPerHour="245.3369665145874" departLane="random" departSpeed="random" departPos="random_free" />
  <flow id="flow_39_phase2b_S_right" type="civilianMix" route="r_S_to_E" begin="1500" end="2100" vehsPerHour="252.57925832271576" departLane="random" departSpeed="random" departPos="random_free" />
  <flow id="flow_40_phase2b_S_uturn" type="civilianMix" route="r_S_to_S" begin="1500" end="2100" vehsPerHour="124.50504529476166" departLane="random" departSpeed="random" departPos="random_free" />
  <flow id="flow_41_phase2b_E_straight" type="civilianMix" route="r_E_to_W" begin="1500" end="2100" vehsPerHour="637.3563312292099" departLane="random" departSpeed="random" departPos="random_free" />
  <flow id="flow_42_phase2b_E_left" type="civilianMix" route="r_E_to_S" begin="1500" end="2100" vehsPerHour="244.9904453754425" departLane="random" departSpeed="random" departPos="random_free" />
  <flow id="flow_43_phase2b_E_right" type="civilianMix" route="r_E_to_N" begin="1500" end="2100" vehsPerHour="252.61391043663028" departLane="random" departSpeed="random" departPos="random_free" />
  <flow id="flow_44_phase2b_E_uturn" type="civilianMix" route="r_E_to_E" begin="1500" end="2100" vehsPerHour="124.7129579782486" departLane="random" departSpeed="random" departPos="random_free" />
  <flow id="flow_45_phase2b_W_straight" type="civilianMix" route="r_W_to_E" begin="1500" end="2100" vehsPerHour="613.2038078308105" departLane="random" departSpeed="random" departPos="random_free" />
  <flow id="flow_46_phase2b_W_left" type="civilianMix" route="r_W_to_N" begin="1500" end="2100" vehsPerHour="238.09467470645902" departLane="random" departSpeed="random" departPos="random_free" />
  <flow id="flow_47_phase2b_W_right" type="civilianMix" route="r_W_to_S" begin="1500" end="2100" vehsPerHour="249.91104555130008" departLane="random" departSpeed="random" departPos="random_free" />
  <flow id="flow_48_phase2b_W_uturn" type="civilianMix" route="r_W_to_W" begin="1500" end="2100" vehsPerHour="123.95061147212984" departLane="random" departSpeed="random" departPos="random_free" />
  <flow id="flow_49_phase2c_N_straight" type="civilianMix" route="r_N_to_S" begin="2100" end="2700" vehsPerHour="728.6473253369331" departLane="random" departSpeed="random" departPos="random_free" />
  <flow id="flow_50_phase2c_N_left" type="civilianMix" route="r_N_to_E" begin="2100" end="2700" vehsPerHour="301.3521086573601" departLane="random" departSpeed="random" departPos="random_free" />
  <flow id="flow_51_phase2c_N_right" type="civilianMix" route="r_N_to_W" begin="2100" end="2700" vehsPerHour="288.13232719898224" departLane="random" departSpeed="random" departPos="random_free" />
  <flow id="flow_52_phase2c_N_uturn" type="civilianMix" route="r_N_to_N" begin="2100" end="2700" vehsPerHour="149.10804617404938" departLane="random" departSpeed="random" departPos="random_free" />
  <flow id="flow_53_phase2c_S_straight" type="civilianMix" route="r_S_to_N" begin="2100" end="2700" vehsPerHour="744.4486892819405" departLane="random" departSpeed="random" departPos="random_free" />
  <flow id="flow_54_phase2c_S_left" type="civilianMix" route="r_S_to_W" begin="2100" end="2700" vehsPerHour="294.4043598175049" departLane="random" departSpeed="random" departPos="random_free" />
  <flow id="flow_55_phase2c_S_right" type="civilianMix" route="r_S_to_E" begin="2100" end="2700" vehsPerHour="303.08471435308456" departLane="random" departSpeed="random" departPos="random_free" />
  <flow id="flow_56_phase2c_S_uturn" type="civilianMix" route="r_S_to_S" begin="2100" end="2700" vehsPerHour="149.40258914232254" departLane="random" departSpeed="random" departPos="random_free" />
  <flow id="flow_57_phase2c_E_straight" type="civilianMix" route="r_W_to_S" begin="2100" end="2700" vehsPerHour="764.8241322636604" departLane="random" departSpeed="random" departPos="random_free" />
  <flow id="flow_58_phase2c_E_left" type="civilianMix" route="r_E_to_S" begin="2100" end="2700" vehsPerHour="293.988534450531" departLane="random" departSpeed="random" departPos="random_free" />
  <flow id="flow_59_phase2c_E_right" type="civilianMix" route="r_E_to_N" begin="2100" end="2700" vehsPerHour="303.1366925239563" departLane="random" departSpeed="random" departPos="random_free" />
  <flow id="flow_60_phase2c_E_uturn" type="civilianMix" route="r_E_to_E" begin="2100" end="2700" vehsPerHour="149.6624799966812" departLane="random" departSpeed="random" departPos="random_free" />
  <flow id="flow_61_phase2c_W_straight" type="civilianMix" route="r_W_to_E" begin="2100" end="2700" vehsPerHour="735.8376389741898" departLane="random" departSpeed="random" departPos="random_free" />
  <flow id="flow_62_phase2c_W_left" type="civilianMix" route="r_W_to_N" begin="2100" end="2700" vehsPerHour="285.70667922496796" departLane="random" departSpeed="random" departPos="random_free" />
  <flow id="flow_63_phase2c_W_right" type="civilianMix" route="r_W_to_S" begin="2100" end="2700" vehsPerHour="299.8967198729515" departLane="random" departSpeed="random" departPos="random_free" />
  <flow id="flow_64_phase2c_W_uturn" type="civilianMix" route="r_W_to_W" begin="2100" end="2700" vehsPerHour="148.74419897794724" departLane="random" departSpeed="random" departPos="random_free" />
  <flow id="flow_65_phase3_N_straight" type="civilianMix" route="r_N_to_S" begin="2700" end="3600" vehsPerHour="242.87666642665863" departLane="random" departSpeed="random" departPos="random_free" />
  <flow id="flow_66_phase3_N_left" type="civilianMix" route="r_N_to_E" begin="2700" end="3600" vehsPerHour="100.45647823810577" departLane="random" departSpeed="random" departPos="random_free" />
  <flow id="flow_67_phase3_N_right" type="civilianMix" route="r_N_to_W" begin="2700" end="3600" vehsPerHour="96.03833371400833" departLane="random" departSpeed="random" departPos="random_free" />
  <flow id="flow_68_phase3_N_uturn" type="civilianMix" route="r_N_to_N" begin="2700" end="3600" vehsPerHour="49.70845741033554" departLane="random" departSpeed="random" departPos="random_free" />
  <flow id="flow_69_phase3_S_straight" type="civilianMix" route="r_S_to_N" begin="2700" end="3600" vehsPerHour="248.14378774166107" departLane="random" departSpeed="random" departPos="random_free" />
  <flow id="flow_70_phase3_S_left" type="civilianMix" route="r_S_to_W" begin="2700" end="3600" vehsPerHour="98.13478660583496" departLane="random" departSpeed="random" departPos="random_free" />
  <flow id="flow_71_phase3_S_right" type="civilianMix" route="r_S_to_E" begin="2700" end="3600" vehsPerHour="101.02823811769485" departLane="random" departSpeed="random" departPos="random_free" />
  <flow id="flow_72_phase3_S_uturn" type="civilianMix" route="r_S_to_S" begin="2700" end="3600" vehsPerHour="49.795087695121765" departLane="random" departSpeed="random" departPos="random_free" />
  <flow id="flow_73_phase3_E_straight" type="civilianMix" route="r_E_to_W" begin="2700" end="3600" vehsPerHour="254.93560206890103" departLane="random" departSpeed="random" departPos="random_free" />
  <flow id="flow_74_phase3_E_left" type="civilianMix" route="r_E_to_S" begin="2700" end="3600" vehsPerHour="97.996178150177" departLane="random" departSpeed="random" departPos="random_free" />
  <flow id="flow_75_phase3_E_right" type="civilianMix" route="r_E_to_N" begin="2700" end="3600" vehsPerHour="101.0455641746521" departLane="random" departSpeed="random" departPos="random_free" />
  <flow id="flow_76_phase3_E_uturn" type="civilianMix" route="r_E_to_E" begin="2700" end="3600" vehsPerHour="49.88171797990799" departLane="random" departSpeed="random" departPos="random_free" />
  <flow id="flow_77_phase3_W_straight" type="civilianMix" route="r_W_to_E" begin="2700" end="3600" vehsPerHour="245.28498834371567" departLane="random" departSpeed="random" departPos="random_free" />
  <flow id="flow_78_phase3_W_left" type="civilianMix" route="r_W_to_N" begin="2700" end="3600" vehsPerHour="95.24133509397507" departLane="random" departSpeed="random" departPos="random_free" />
  <flow id="flow_79_phase3_W_right" type="civilianMix" route="r_W_to_S" begin="2700" end="3600" vehsPerHour="99.97134864330292" departLane="random" departSpeed="random" departPos="random_free" />
  <flow id="flow_80_phase3_W_uturn" type="civilianMix" route="r_W_to_W" begin="2700" end="3600" vehsPerHour="49.58717501163483" departLane="random" departSpeed="random" departPos="random_free" />
</routes>