<?xml version='1.0' encoding='UTF-8'?>
<routes>
  <vTypeDistribution id="civilianMix">
    <vType id="moto" vClass="motorcycle" accel="2.6" decel="4.5" length="1.9" minGap="1.0" maxSpeed="16.0" sigma="0.5" speedFactor="normc(1.0,0.12,0.7,1.3)" color="0,255,0" probability="0.50" />
    <vType id="car" vClass="passenger" accel="2.6" decel="4.5" length="4.5" minGap="2.5" maxSpeed="20.0" sigma="0.5" speedFactor="normc(1.0,0.10,0.7,1.3)" color="255,0,0" probability="0.20" />
    <vType id="truck" vClass="truck" accel="1.3" decel="3.0" length="7.5" minGap="3.0" maxSpeed="16.0" sigma="0.6" speedFactor="normc(0.95,0.08,0.7,1.2)" color="255,165,0" probability="0.15" />
    <vType id="bus" vClass="bus" accel="1.2" decel="3.0" length="12.0" minGap="3.0" maxSpeed="16.0" sigma="0.6" speedFactor="normc(0.95,0.08,0.7,1.2)" color="0,128,255" probability="0.10" />
    <vType id="container" vClass="truck" accel="0.9" decel="2.5" length="14.0" minGap="3.5" maxSpeed="14.0" sigma="0.7" speedFactor="normc(0.9,0.07,0.7,1.15)" color="128,64,0" probability="0.04" />
    <vType id="emergency" vClass="emergency" accel="3.0" decel="5.0" length="5.0" minGap="1.5" maxSpeed="25.0" sigma="0.3" speedFactor="normc(1.1,0.05,0.9,1.2)" color="255,0,255" probability="0.01" />
  </vTypeDistribution>
  <route id="r_N_to_S" edges="N_in S_out" />
  <route id="r_N_to_E" edges="N_in E_out" />
  <route id="r_N_to_W" edges="N_in W_out" />
  <route id="r_N_to_N" edges="N_in N_out" />
  <route id="r_S_to_N" edges="S_in N_out" />
  <route id="r_S_to_W" edges="S_in W_out" />
  <route id="r_S_to_E" edges="S_in E_out" />
  <route id="r_S_to_S" edges="S_in S_out" />
  <route id="r_E_to_W" edges="E_in W_out" />
  <route id="r_E_to_S" edges="E_in S_out" />
  <route id="r_E_to_N" edges="E_in N_out" />
  <route id="r_E_to_E" edges="E_in E_out" />
  <route id="r_W_to_E" edges="W_in E_out" />
  <route id="r_W_to_N" edges="W_in N_out" />
  <route id="r_W_to_S" edges="W_in S_out" />
  <route id="r_W_to_W" edges="W_in W_out" />
  <flow id="flow_1_phase1_N_straight" type="civilianMix" route="r_N_to_S" begin="0" end="900" vehsPerHour="154.21412922382356" departLane="random" departSpeed="random" departPos="random_free" />
  <flow id="flow_2_phase1_N_left" type="civilianMix" route="r_N_to_E" begin="0" end="900" vehsPerHour="63.78467122554779" departLane="random" departSpeed="random" departPos="random_free" />
  <flow id="flow_3_phase1_N_right" type="civilianMix" route="r_W_to_S" begin="0" end="900" vehsPerHour="60.97937782049179" departLane="random" departSpeed="random" departPos="random_free" />
  <flow id="flow_4_phase1_N_uturn" type="civilianMix" route="r_N_to_N" begin="0" end="900" vehsPerHour="31.562301094532014" departLane="random" departSpeed="random" departPos="random_free" />
  <flow id="flow_5_phase1_S_straight" type="civilianMix" route="r_S_to_N" begin="0" end="900" vehsPerHour="157.55847900867462" departLane="random" departSpeed="random" departPos="random_free" />
  <flow id="flow_6_phase1_S_left" type="civilianMix" route="r_S_to_W" begin="0" end="900" vehsPerHour="62.31051704406738" departLane="random" departSpeed="random" departPos="random_free" />
  <flow id="flow_7_phase1_S_right" type="civilianMix" route="r_S_to_E" begin="0" end="900" vehsPerHour="64.14770919561386" departLane="random" departSpeed="random" departPos="random_free" />
  <flow id="flow_8_phase1_S_uturn" type="civilianMix" route="r_S_to_S" begin="0" end="900" vehsPerHour="31.617306847572326" departLane="random" departSpeed="random" departPos="random_free" />
  <flow id="flow_9_phase1_E_straight" type="civilianMix" route="r_E_to_W" begin="0" end="900" vehsPerHour="161.87093004703522" departLane="random" departSpeed="random" departPos="random_free" />
  <flow id="flow_10_phase1_E_left" type="civilianMix" route="r_E_to_S" begin="0" end="900" vehsPerHour="62.22250783920288" departLane="random" departSpeed="random" departPos="random_free" />
  <flow id="flow_11_phase1_E_right" type="civilianMix" route="r_E_to_N" begin="0" end="900" vehsPerHour="64.15871034622192" departLane="random" departSpeed="random" departPos="random_free" />
  <flow id="flow_12_phase1_E_uturn" type="civilianMix" route="r_E_to_E" begin="0" end="900" vehsPerHour="31.67231260061264" departLane="random" departSpeed="random" departPos="random_free" />
  <flow id="flow_13_phase1_W_straight" type="civilianMix" route="r_W_to_E" begin="0" end="900" vehsPerHour="155.74328915834425" departLane="random" departSpeed="random" departPos="random_free" />
  <flow id="flow_14_phase1_W_left" type="civilianMix" route="r_W_to_N" begin="0" end="900" vehsPerHour="60.47332489252091" departLane="random" departSpeed="random" departPos="random_free" />
  <flow id="flow_15_phase1_W_right" type="civilianMix" route="r_S_to_W" begin="0" end="900" vehsPerHour="63.476639008522035" departLane="random" departSpeed="random" departPos="random_free" />
  <flow id="flow_16_phase1_W_uturn" type="civilianMix" route="r_W_to_W" begin="0" end="900" vehsPerHour="31.485293040275575" departLane="random" departSpeed="random" departPos="random_free" />
  <flow id="flow_17_phase2a_N_straight" type="civilianMix" route="r_N_to_S" begin="900" end="1500" vehsPerHour="308.43925959825515" departLane="random" departSpeed="random" departPos="random_free" />
  <flow id="flow_18_phase2a_N_left" type="civilianMix" route="r_N_to_E" begin="900" end="1500" vehsPerHour="127.55834130048753" departLane="random" departSpeed="random" departPos="random_free" />
  <flow id="flow_19_phase2a_N_right" type="civilianMix" route="r_N_to_N" begin="900" end="1500" vehsPerHour="121.95875564098358" departLane="random" departSpeed="random" departPos="random_free" />
  <flow id="flow_20_phase2a_N_uturn" type="civilianMix" route="r_N_to_N" begin="900" end="1500" vehsPerHour="63.12460218906403" departLane="random" departSpeed="random" departPos="random_free" />
  <flow id="flow_21_phase2a_S_straight" type="civilianMix" route="r_S_to_N" begin="900" end="1500" vehsPerHour="315.1279591679573" departLane="random" departSpeed="random" departPos="random_free" />
  <flow id="flow_22_phase2a_S_left" type="civilianMix" route="r_S_to_S" begin="900" end="1500" vehsPerHour="124.62103408813476" departLane="random" departSpeed="random" departPos="random_free" />
  <flow id="flow_23_phase2a_S_right" type="civilianMix" route="r_S_to_E" begin="900" end="1500" vehsPerHour="128.2954183912277" departLane="random" departSpeed="random" departPos="random_free" />
  <flow id="flow_24_phase2a_S_uturn" type="civilianMix" route="r_S_to_S" begin="900" end="1500" vehsPerHour="63.24561484575272" departLane="random" departSpeed="random" departPos="random_free" />
  <flow id="flow_25_phase2a_E_straight" type="civilianMix" route="r_E_to_W" begin="900" end="1500" vehsPerHour="323.7528612446785" departLane="random" departSpeed="random" departPos="random_free" />
  <flow id="flow_26_phase2a_E_left" type="civilianMix" route="r_W_to_W" begin="900" end="1500" vehsPerHour="124.44501567840577" departLane="random" departSpeed="random" departPos="random_free" />
  <flow id="flow_27_phase2a_E_right" type="civilianMix" route="r_E_to_N" begin="900" end="1500" vehsPerHour="128.31742069244385" departLane="random" departSpeed="random" departPos="random_free" />
  <flow id="flow_28_phase2a_E_uturn" type="civilianMix" route="r_E_to_E" begin="900" end="1500" vehsPerHour="63.34462520122528" departLane="random" departSpeed="random" departPos="random_free" />
  <flow id="flow_29_phase2a_W_straight" type="civilianMix" route="r_W_to_E" begin="900" end="1500" vehsPerHour="311.4755771660805" departLane="random" departSpeed="random" departPos="random_free" />
  <flow id="flow_30_phase2a_W_left" type="civilianMix" route="r_W_to_N" begin="900" end="1500" vehsPerHour="120.94664978504181" departLane="random" departSpeed="random" departPos="random_free" />
  <flow id="flow_31_phase2a_W_right" type="civilianMix" route="r_W_to_S" begin="900" end="1500" vehsPerHour="126.942276866436" departLane="random" departSpeed="random" departPos="random_free" />
  <flow id="flow_32_phase2a_W_uturn" type="civilianMix" route="r_W_to_W" begin="900" end="1500" vehsPerHour="62.959584929943084" departLane="random" departSpeed="random" departPos="random_free" />
  <flow id="flow_33_phase2b_N_straight" type="civilianMix" route="r_N_to_S" begin="1500" end="2100" vehsPerHour="385.5463242101669" departLane="random" departSpeed="random" departPos="random_free" />
  <flow id="flow_34_phase2b_N_left" type="civilianMix" route="r_N_to_E" begin="1500" end="2100" vehsPerHour="159.45067691326142" departLane="random" departSpeed="random" departPos="random_free" />
  <flow id="flow_35_phase2b_N_right" type="civilianMix" route="r_N_to_N" begin="1500" end="2100" vehsPerHour="152.4539451265335" departLane="random" departSpeed="random" departPos="random_free" />
  <flow id="flow_36_phase2b_N_uturn" type="civilianMix" route="r_E_to_E" begin="1500" end="2100" vehsPerHour="78.900252161026" departLane="random" departSpeed="random" departPos="random_free" />
  <flow id="flow_37_phase2b_S_straight" type="civilianMix" route="r_N_to_W" begin="1500" end="2100" vehsPerHour="393.9071986722946" departLane="random" departSpeed="random" departPos="random_free" />
  <flow id="flow_38_phase2b_S_left" type="civilianMix" route="r_S_to_W" begin="1500" end="2100" vehsPerHour="155.77629261016844" departLane="random" departSpeed="random" departPos="random_free" />
  <flow id="flow_39_phase2b_S_right" type="civilianMix" route="r_S_to_N" begin="1500" end="2100" vehsPerHour="160.37477356433868" departLane="random" departSpeed="random" departPos="random_free" />
  <flow id="flow_40_phase2b_S_uturn" type="civilianMix" route="r_S_to_S" begin="1500" end="2100" vehsPerHour="79.05426826953888" departLane="random" departSpeed="random" departPos="random_free" />
  <flow id="flow_41_phase2b_E_straight" type="civilianMix" route="r_N_to_N" begin="1500" end="2100" vehsPerHour="404.68832626819614" departLane="random" departSpeed="random" departPos="random_free" />
  <flow id="flow_42_phase2b_E_left" type="civilianMix" route="r_E_to_S" begin="1500" end="2100" vehsPerHour="155.55626959800722" departLane="random" departSpeed="random" departPos="random_free" />
  <flow id="flow_43_phase2b_E_right" type="civilianMix" route="r_E_to_N" begin="1500" end="2100" vehsPerHour="160.39677586555482" departLane="random" departSpeed="random" departPos="random_free" />
  <flow id="flow_44_phase2b_E_uturn" type="civilianMix" route="r_E_to_E" begin="1500" end="2100" vehsPerHour="79.18628207683564" departLane="random" departSpeed="random" departPos="random_free" />
  <flow id="flow_45_phase2b_W_straight" type="civilianMix" route="r_E_to_S" begin="1500" end="2100" vehsPerHour="389.35272232055667" departLane="random" departSpeed="random" departPos="random_free" />
  <flow id="flow_46_phase2b_W_left" type="civilianMix" route="r_W_to_N" begin="1500" end="2100" vehsPerHour="151.17781165599823" departLane="random" departSpeed="random" departPos="random_free" />
  <flow id="flow_47_phase2b_W_right" type="civilianMix" route="r_W_to_S" begin="1500" end="2100" vehsPerHour="158.68059637069703" departLane="random" departSpeed="random" departPos="random_free" />
  <flow id="flow_48_phase2b_W_uturn" type="civilianMix" route="r_W_to_W" begin="1500" end="2100" vehsPerHour="78.70223145008087" departLane="random" departSpeed="random" departPos="random_free" />
  <flow id="flow_49_phase2c_N_straight" type="civilianMix" route="r_N_to_S" begin="2100" end="2700" vehsPerHour="462.65338882207874" departLane="random" departSpeed="random" departPos="random_free" />
  <flow id="flow_50_phase2c_N_left" type="civilianMix" route="r_N_to_E" begin="2100" end="2700" vehsPerHour="191.34301252603532" departLane="random" departSpeed="random" departPos="random_free" />
  <flow id="flow_51_phase2c_N_right" type="civilianMix" route="r_N_to_W" begin="2100" end="2700" vehsPerHour="182.94913461208344" departLane="random" departSpeed="random" departPos="random_free" />
  <flow id="flow_52_phase2c_N_uturn" type="civilianMix" route="r_N_to_N" begin="2100" end="2700" vehsPerHour="94.67590213298797" departLane="random" departSpeed="random" departPos="random_free" />
  <flow id="flow_53_phase2c_S_straight" type="civilianMix" route="r_S_to_N" begin="2100" end="2700" vehsPerHour="472.68643817663195" departLane="random" departSpeed="random" departPos="random_free" />
  <flow id="flow_54_phase2c_S_left" type="civilianMix" route="r_S_to_W" begin="2100" end="2700" vehsPerHour="186.93155113220215" departLane="random" departSpeed="random" departPos="random_free" />
  <flow id="flow_55_phase2c_S_right" type="civilianMix" route="r_S_to_E" begin="2100" end="2700" vehsPerHour="192.4431275868416" departLane="random" departSpeed="random" departPos="random_free" />
  <flow id="flow_56_phase2c_S_uturn" type="civilianMix" route="r_S_to_S" begin="2100" end="2700" vehsPerHour="94.86292169332505" departLane="random" departSpeed="random" departPos="random_free" />
  <flow id="flow_57_phase2c_E_straight" type="civilianMix" route="r_E_to_W" begin="2100" end="2700" vehsPerHour="485.6237912917137" departLane="random" departSpeed="random" departPos="random_free" />
  <flow id="flow_58_phase2c_E_left" type="civilianMix" route="r_E_to_S" begin="2100" end="2700" vehsPerHour="186.66752351760866" departLane="random" departSpeed="random" departPos="random_free" />
  <flow id="flow_59_phase2c_E_right" type="civilianMix" route="r_E_to_N" begin="2100" end="2700" vehsPerHour="192.47613103866578" departLane="random" departSpeed="random" departPos="random_free" />
  <flow id="flow_60_phase2c_E_uturn" type="civilianMix" route="r_E_to_E" begin="2100" end="2700" vehsPerHour="95.02793895244598" departLane="random" departSpeed="random" departPos="random_free" />
  <flow id="flow_61_phase2c_W_straight" type="civilianMix" route="r_W_to_E" begin="2100" end="2700" vehsPerHour="467.2188663244247" departLane="random" departSpeed="random" departPos="random_free" />
  <flow id="flow_62_phase2c_W_left" type="civilianMix" route="r_W_to_N" begin="2100" end="2700" vehsPerHour="181.40897352695467" departLane="random" departSpeed="random" departPos="random_free" />
  <flow id="flow_63_phase2c_W_right" type="civilianMix" route="r_W_to_S" begin="2100" end="2700" vehsPerHour="190.41891587495803" departLane="random" departSpeed="random" departPos="random_free" />
  <flow id="flow_64_phase2c_W_uturn" type="civilianMix" route="r_E_to_W" begin="2100" end="2700" vehsPerHour="94.44487797021866" departLane="random" departSpeed="random" departPos="random_free" />
  <flow id="flow_65_phase3_N_straight" type="civilianMix" route="r_N_to_S" begin="2700" end="3600" vehsPerHour="154.21412922382356" departLane="random" departSpeed="random" departPos="random_free" />
  <flow id="flow_66_phase3_N_left" type="civilianMix" route="r_E_to_W" begin="2700" end="3600" vehsPerHour="63.78467122554779" departLane="random" departSpeed="random" departPos="random_free" />
  <flow id="flow_67_phase3_N_right" type="civilianMix" route="r_N_to_W" begin="2700" end="3600" vehsPerHour="60.97937782049179" departLane="random" departSpeed="random" departPos="random_free" />
  <flow id="flow_68_phase3_N_uturn" type="civilianMix" route="r_N_to_N" begin="2700" end="3600" vehsPerHour="31.562301094532014" departLane="random" departSpeed="random" departPos="random_free" />
  <flow id="flow_69_phase3_S_straight" type="civilianMix" route="r_S_to_S" begin="2700" end="3600" vehsPerHour="157.55847900867462" departLane="random" departSpeed="random" departPos="random_free" />
  <flow id="flow_70_phase3_S_left" type="civilianMix" route="r_S_to_W" begin="2700" end="3600" vehsPerHour="62.31051704406738" departLane="random" departSpeed="random" departPos="random_free" />
  <flow id="flow_71_phase3_S_right" type="civilianMix" route="r_S_to_E" begin="2700" end="3600" vehsPerHour="64.14770919561386" departLane="random" departSpeed="random" departPos="random_free" />
  <flow id="flow_72_phase3_S_uturn" type="civilianMix" route="r_S_to_S" begin="2700" end="3600" vehsPerHour="31.617306847572326" departLane="random" departSpeed="random" departPos="random_free" />
  <flow id="flow_73_phase3_E_straight" type="civilianMix" route="r_E_to_W" begin="2700" end="3600" vehsPerHour="161.87093004703522" departLane="random" departSpeed="random" departPos="random_free" />
  <flow id="flow_74_phase3_E_left" type="civilianMix" route="r_E_to_S" begin="2700" end="3600" vehsPerHour="62.22250783920288" departLane="random" departSpeed="random" departPos="random_free" />
  <flow id="flow_75_phase3_E_right" type="civilianMix" route="r_E_to_N" begin="2700" end="3600" vehsPerHour="64.15871034622192" departLane="random" departSpeed="random" departPos="random_free" />
  <flow id="flow_76_phase3_E_uturn" type="civilianMix" route="r_E_to_E" begin="2700" end="3600" vehsPerHour="31.67231260061264" departLane="random" departSpeed="random" departPos="random_free" />
  <flow id="flow_77_phase3_W_straight" type="civilianMix" route="r_W_to_W" begin="2700" end="3600" vehsPerHour="155.74328915834425" departLane="random" departSpeed="random" departPos="random_free" />
  <flow id="flow_78_phase3_W_left" type="civilianMix" route="r_W_to_N" begin="2700" end="3600" vehsPerHour="60.47332489252091" departLane="random" departSpeed="random" departPos="random_free" />
  <flow id="flow_79_phase3_W_right" type="civilianMix" route="r_W_to_S" begin="2700" end="3600" vehsPerHour="63.476639008522035" departLane="random" departSpeed="random" departPos="random_free" />
  <flow id="flow_80_phase3_W_uturn" type="civilianMix" route="r_N_to_S" begin="2700" end="3600" vehsPerHour="31.485293040275575" departLane="random" departSpeed="random" departPos="random_free" />
</routes>