<?xml version='1.0' encoding='UTF-8'?>
<routes>
  <vTypeDistribution id="civilianMix">
    <vType id="moto" vClass="motorcycle" accel="2.6" decel="4.5" length="1.9" minGap="1.0" maxSpeed="16.0" sigma="0.5" speedFactor="normc(1.0,0.12,0.7,1.3)" color="0,255,0" probability="0.50" />
    <vType id="car" vClass="passenger" accel="2.6" decel="4.5" length="4.5" minGap="2.5" maxSpeed="20.0" sigma="0.5" speedFactor="normc(1.0,0.10,0.7,1.3)" color="255,0,0" probability="0.20" />
    <vType id="truck" vClass="truck" accel="1.3" decel="3.0" length="7.5" minGap="3.0" maxSpeed="16.0" sigma="0.6" speedFactor="normc(0.95,0.08,0.7,1.2)" color="255,165,0" probability="0.15" />
    <vType id="bus" vClass="bus" accel="1.2" decel="3.0" length="12.0" minGap="3.0" maxSpeed="16.0" sigma="0.6" speedFactor="normc(0.95,0.08,0.7,1.2)" color="0,128,255" probability="0.10" />
    <vType id="container" vClass="truck" accel="0.9" decel="2.5" length="14.0" minGap="3.5" maxSpeed="14.0" sigma="0.7" speedFactor="normc(0.9,0.07,0.7,1.15)" color="128,64,0" probability="0.04" />
    <vType id="emergency" vClass="emergency" accel="3.0" decel="5.0" length="5.0" minGap="1.5" maxSpeed="25.0" sigma="0.3" speedFactor="normc(1.1,0.05,0.9,1.2)" color="255,0,255" probability="0.01" />
  </vTypeDistribution>
  <route id="r_N_to_S" edges="N_in S_out" />
  <route id="r_N_to_E" edges="N_in E_out" />
  <route id="r_N_to_W" edges="N_in W_out" />
  <route id="r_N_to_N" edges="N_in N_out" />
  <route id="r_S_to_N" edges="S_in N_out" />
  <route id="r_S_to_W" edges="S_in W_out" />
  <route id="r_S_to_E" edges="S_in E_out" />
  <route id="r_S_to_S" edges="S_in S_out" />
  <route id="r_E_to_W" edges="E_in W_out" />
  <route id="r_E_to_S" edges="E_in S_out" />
  <route id="r_E_to_N" edges="E_in N_out" />
  <route id="r_E_to_E" edges="E_in E_out" />
  <route id="r_W_to_E" edges="W_in E_out" />
  <route id="r_W_to_N" edges="W_in N_out" />
  <route id="r_W_to_S" edges="W_in S_out" />
  <route id="r_W_to_W" edges="W_in W_out" />
  <flow id="flow_1_phase1_N_straight" type="civilianMix" route="r_N_to_S" begin="0" end="900" vehsPerHour="224.42600078344347" departLane="random" departSpeed="random" departPos="random_free" />
  <flow id="flow_2_phase1_N_left" type="civilianMix" route="r_N_to_E" begin="0" end="900" vehsPerHour="92.82507865190506" departLane="random" departSpeed="random" departPos="random_free" />
  <flow id="flow_3_phase1_N_right" type="civilianMix" route="r_N_to_W" begin="0" end="900" vehsPerHour="88.7425682938099" departLane="random" departSpeed="random" departPos="random_free" />
  <flow id="flow_4_phase1_N_uturn" type="civilianMix" route="r_N_to_N" begin="0" end="900" vehsPerHour="45.932243989706045" departLane="random" departSpeed="random" departPos="random_free" />
  <flow id="flow_5_phase1_S_straight" type="civilianMix" route="r_S_to_N" begin="0" end="900" vehsPerHour="229.29299352407455" departLane="random" departSpeed="random" departPos="random_free" />
  <flow id="flow_6_phase1_S_left" type="civilianMix" route="r_S_to_W" begin="0" end="900" vehsPerHour="90.6797594833374" departLane="random" departSpeed="random" departPos="random_free" />
  <flow id="flow_7_phase1_S_right" type="civilianMix" route="r_S_to_E" begin="0" end="900" vehsPerHour="93.3534035217762" departLane="random" departSpeed="random" departPos="random_free" />
  <flow id="flow_8_phase1_S_uturn" type="civilianMix" route="r_S_to_S" begin="0" end="900" vehsPerHour="46.01229321241379" departLane="random" departSpeed="random" departPos="random_free" />
  <flow id="flow_9_phase1_E_straight" type="civilianMix" route="r_E_to_W" begin="0" end="900" vehsPerHour="235.56885258436202" departLane="random" departSpeed="random" departPos="random_free" />
  <flow id="flow_10_phase1_E_left" type="civilianMix" route="r_E_to_S" begin="0" end="900" vehsPerHour="90.551680727005" departLane="random" departSpeed="random" departPos="random_free" />
  <flow id="flow_11_phase1_E_right" type="civilianMix" route="r_E_to_N" begin="0" end="900" vehsPerHour="93.36941336631774" departLane="random" departSpeed="random" departPos="random_free" />
  <flow id="flow_12_phase1_E_uturn" type="civilianMix" route="r_N_to_E" begin="0" end="900" vehsPerHour="46.09234243512154" departLane="random" departSpeed="random" departPos="random_free" />
  <flow id="flow_13_phase1_W_straight" type="civilianMix" route="r_W_to_E" begin="0" end="900" vehsPerHour="226.65136917471884" departLane="random" departSpeed="random" departPos="random_free" />
  <flow id="flow_14_phase1_W_left" type="civilianMix" route="r_W_to_N" begin="0" end="900" vehsPerHour="88.0061154448986" departLane="random" departSpeed="random" departPos="random_free" />
  <flow id="flow_15_phase1_W_right" type="civilianMix" route="r_W_to_S" begin="0" end="900" vehsPerHour="92.37680300474167" departLane="random" departSpeed="random" departPos="random_free" />
  <flow id="flow_16_phase1_W_uturn" type="civilianMix" route="r_W_to_W" begin="0" end="900" vehsPerHour="45.820175077915195" departLane="random" departSpeed="random" departPos="random_free" />
  <flow id="flow_17_phase2a_N_straight" type="civilianMix" route="r_N_to_S" begin="900" end="1500" vehsPerHour="448.8680114114285" departLane="random" departSpeed="random" departPos="random_free" />
  <flow id="flow_18_phase2a_N_left" type="civilianMix" route="r_N_to_E" begin="900" end="1500" vehsPerHour="185.63414745926858" departLane="random" departSpeed="random" departPos="random_free" />
  <flow id="flow_19_phase2a_N_right" type="civilianMix" route="r_N_to_W" begin="900" end="1500" vehsPerHour="177.4851365876198" departLane="random" departSpeed="random" departPos="random_free" />
  <flow id="flow_20_phase2a_N_uturn" type="civilianMix" route="r_N_to_N" begin="900" end="1500" vehsPerHour="91.86448797941209" departLane="random" departSpeed="random" departPos="random_free" />
  <flow id="flow_21_phase2a_S_straight" type="civilianMix" route="r_S_to_N" begin="900" end="1500" vehsPerHour="458.60199689269064" departLane="random" departSpeed="random" departPos="random_free" />
  <flow id="flow_22_phase2a_S_left" type="civilianMix" route="r_S_to_W" begin="900" end="1500" vehsPerHour="181.3595189666748" departLane="random" departSpeed="random" departPos="random_free" />
  <flow id="flow_23_phase2a_S_right" type="civilianMix" route="r_W_to_N" begin="900" end="1500" vehsPerHour="186.7068070435524" departLane="random" departSpeed="random" departPos="random_free" />
  <flow id="flow_24_phase2a_S_uturn" type="civilianMix" route="r_S_to_S" begin="900" end="1500" vehsPerHour="92.04059626936913" departLane="random" departSpeed="random" departPos="random_free" />
  <flow id="flow_25_phase2a_E_straight" type="civilianMix" route="r_E_to_W" begin="900" end="1500" vehsPerHour="471.15371501326564" departLane="random" departSpeed="random" departPos="random_free" />
  <flow id="flow_26_phase2a_E_left" type="civilianMix" route="r_E_to_S" begin="900" end="1500" vehsPerHour="181.10336145401" departLane="random" departSpeed="random" departPos="random_free" />
  <flow id="flow_27_phase2a_E_right" type="civilianMix" route="r_E_to_N" begin="900" end="1500" vehsPerHour="186.7388267326355" departLane="random" departSpeed="random" departPos="random_free" />
  <flow id="flow_28_phase2a_E_uturn" type="civilianMix" route="r_E_to_E" begin="900" end="1500" vehsPerHour="92.18468487024307" departLane="random" departSpeed="random" departPos="random_free" />
  <flow id="flow_29_phase2a_W_straight" type="civilianMix" route="r_W_to_S" begin="900" end="1500" vehsPerHour="453.28672850489613" departLane="random" departSpeed="random" departPos="random_free" />
  <flow id="flow_30_phase2a_W_left" type="civilianMix" route="r_W_to_N" begin="900" end="1500" vehsPerHour="176.0122308897972" departLane="random" departSpeed="random" departPos="random_free" />
  <flow id="flow_31_phase2a_W_right" type="civilianMix" route="r_N_to_N" begin="900" end="1500" vehsPerHour="184.73759616494178" departLane="random" departSpeed="random" departPos="random_free" />
  <flow id="flow_32_phase2a_W_uturn" type="civilianMix" route="r_W_to_W" begin="900" end="1500" vehsPerHour="91.62434031128883" departLane="random" departSpeed="random" departPos="random_free" />
  <flow id="flow_33_phase2b_N_straight" type="civilianMix" route="r_N_to_E" begin="1500" end="2100" vehsPerHour="561.0810118031501" departLane="random" departSpeed="random" departPos="random_free" />
  <flow id="flow_34_phase2b_N_left" type="civilianMix" route="r_N_to_E" begin="1500" end="2100" vehsPerHour="232.04668678522108" departLane="random" departSpeed="random" departPos="random_free" />
  <flow id="flow_35_phase2b_N_right" type="civilianMix" route="r_N_to_W" begin="1500" end="2100" vehsPerHour="221.86442565679553" departLane="random" departSpeed="random" departPos="random_free" />
  <flow id="flow_36_phase2b_N_uturn" type="civilianMix" route="r_N_to_N" begin="1500" end="2100" vehsPerHour="114.82260505199432" departLane="random" departSpeed="random" departPos="random_free" />
  <flow id="flow_37_phase2b_S_straight" type="civilianMix" route="r_S_to_N" begin="1500" end="2100" vehsPerHour="573.2484936547279" departLane="random" departSpeed="random" departPos="random_free" />
  <flow id="flow_38_phase2b_S_left" type="civilianMix" route="r_S_to_W" begin="1500" end="2100" vehsPerHour="226.6993987083435" departLane="random" departSpeed="random" departPos="random_free" />
  <flow id="flow_39_phase2b_S_right" type="civilianMix" route="r_S_to_E" begin="1500" end="2100" vehsPerHour="233.39151372671128" departLane="random" departSpeed="random" departPos="random_free" />
  <flow id="flow_40_phase2b_S_uturn" type="civilianMix" route="r_S_to_S" begin="1500" end="2100" vehsPerHour="115.04674287557602" departLane="random" departSpeed="random" departPos="random_free" />
  <flow id="flow_41_phase2b_E_straight" type="civilianMix" route="r_E_to_W" begin="1500" end="2100" vehsPerHour="588.9381413054466" departLane="random" departSpeed="random" departPos="random_free" />
  <flow id="flow_42_phase2b_E_left" type="civilianMix" route="r_E_to_S" begin="1500" end="2100" vehsPerHour="226.37920181751252" departLane="random" departSpeed="random" departPos="random_free" />
  <flow id="flow_43_phase2b_E_right" type="civilianMix" route="r_E_to_N" begin="1500" end="2100" vehsPerHour="233.4235334157944" departLane="random" departSpeed="random" departPos="random_free" />
  <flow id="flow_44_phase2b_E_uturn" type="civilianMix" route="r_E_to_N" begin="1500" end="2100" vehsPerHour="115.23886101007461" departLane="random" departSpeed="random" departPos="random_free" />
  <flow id="flow_45_phase2b_W_straight" type="civilianMix" route="r_W_to_E" begin="1500" end="2100" vehsPerHour="566.6204180145264" departLane="random" departSpeed="random" departPos="random_free" />
  <flow id="flow_46_phase2b_W_left" type="civilianMix" route="r_W_to_N" begin="1500" end="2100" vehsPerHour="220.0072836899757" departLane="random" departSpeed="random" departPos="random_free" />
  <flow id="flow_47_phase2b_W_right" type="civilianMix" route="r_W_to_S" begin="1500" end="2100" vehsPerHour="230.92599766731263" departLane="random" departSpeed="random" departPos="random_free" />
  <flow id="flow_48_phase2b_W_uturn" type="civilianMix" route="r_S_to_N" begin="1500" end="2100" vehsPerHour="114.53442785024644" departLane="random" departSpeed="random" departPos="random_free" />
  <flow id="flow_49_phase2c_N_straight" type="civilianMix" route="r_N_to_S" begin="2100" end="2700" vehsPerHour="673.2940121948719" departLane="random" departSpeed="random" departPos="random_free" />
  <flow id="flow_50_phase2c_N_left" type="civilianMix" route="r_W_to_W" begin="2100" end="2700" vehsPerHour="278.4592261111736" departLane="random" departSpeed="random" departPos="random_free" />
  <flow id="flow_51_phase2c_N_right" type="civilianMix" route="r_N_to_W" begin="2100" end="2700" vehsPerHour="266.24371472597124" departLane="random" departSpeed="random" departPos="random_free" />
  <flow id="flow_52_phase2c_N_uturn" type="civilianMix" route="r_N_to_N" begin="2100" end="2700" vehsPerHour="137.78072212457658" departLane="random" departSpeed="random" departPos="random_free" />
  <flow id="flow_53_phase2c_S_straight" type="civilianMix" route="r_S_to_N" begin="2100" end="2700" vehsPerHour="687.8949904167653" departLane="random" departSpeed="random" departPos="random_free" />
  <flow id="flow_54_phase2c_S_left" type="civilianMix" route="r_E_to_N" begin="2100" end="2700" vehsPerHour="272.0392784500122" departLane="random" departSpeed="random" departPos="random_free" />
  <flow id="flow_55_phase2c_S_right" type="civilianMix" route="r_S_to_E" begin="2100" end="2700" vehsPerHour="280.0602105653286" departLane="random" departSpeed="random" departPos="random_free" />
  <flow id="flow_56_phase2c_S_uturn" type="civilianMix" route="r_S_to_S" begin="2100" end="2700" vehsPerHour="138.05288948178293" departLane="random" departSpeed="random" departPos="random_free" />
  <flow id="flow_57_phase2c_E_straight" type="civilianMix" route="r_E_to_W" begin="2100" end="2700" vehsPerHour="706.7225675976276" departLane="random" departSpeed="random" departPos="random_free" />
  <flow id="flow_58_phase2c_E_left" type="civilianMix" route="r_E_to_E" begin="2100" end="2700" vehsPerHour="271.655042181015" departLane="random" departSpeed="random" departPos="random_free" />
  <flow id="flow_59_phase2c_E_right" type="civilianMix" route="r_E_to_N" begin="2100" end="2700" vehsPerHour="280.1082400989533" departLane="random" departSpeed="random" departPos="random_free" />
  <flow id="flow_60_phase2c_E_uturn" type="civilianMix" route="r_E_to_E" begin="2100" end="2700" vehsPerHour="138.29303714990616" departLane="random" departSpeed="random" departPos="random_free" />
  <flow id="flow_61_phase2c_W_straight" type="civilianMix" route="r_W_to_E" begin="2100" end="2700" vehsPerHour="679.938097679615" departLane="random" departSpeed="random" departPos="random_free" />
  <flow id="flow_62_phase2c_W_left" type="civilianMix" route="r_W_to_N" begin="2100" end="2700" vehsPerHour="264.0023364901543" departLane="random" departSpeed="random" departPos="random_free" />
  <flow id="flow_63_phase2c_W_right" type="civilianMix" route="r_W_to_S" begin="2100" end="2700" vehsPerHour="277.11439916968345" departLane="random" departSpeed="random" departPos="random_free" />
  <flow id="flow_64_phase2c_W_uturn" type="civilianMix" route="r_W_to_W" begin="2100" end="2700" vehsPerHour="137.444515389204" departLane="random" departSpeed="random" departPos="random_free" />
  <flow id="flow_65_phase3_N_straight" type="civilianMix" route="r_E_to_N" begin="2700" end="3600" vehsPerHour="224.42600078344347" departLane="random" departSpeed="random" departPos="random_free" />
  <flow id="flow_66_phase3_N_left" type="civilianMix" route="r_W_to_E" begin="2700" end="3600" vehsPerHour="92.82507865190506" departLane="random" departSpeed="random" departPos="random_free" />
  <flow id="flow_67_phase3_N_right" type="civilianMix" route="r_W_to_S" begin="2700" end="3600" vehsPerHour="88.7425682938099" departLane="random" departSpeed="random" departPos="random_free" />
  <flow id="flow_68_phase3_N_uturn" type="civilianMix" route="r_S_to_E" begin="2700" end="3600" vehsPerHour="45.932243989706045" departLane="random" departSpeed="random" departPos="random_free" />
  <flow id="flow_69_phase3_S_straight" type="civilianMix" route="r_S_to_N" begin="2700" end="3600" vehsPerHour="229.29299352407455" departLane="random" departSpeed="random" departPos="random_free" />
  <flow id="flow_70_phase3_S_left" type="civilianMix" route="r_S_to_W" begin="2700" end="3600" vehsPerHour="90.6797594833374" departLane="random" departSpeed="random" departPos="random_free" />
  <flow id="flow_71_phase3_S_right" type="civilianMix" route="r_N_to_E" begin="2700" end="3600" vehsPerHour="93.3534035217762" departLane="random" departSpeed="random" departPos="random_free" />
  <flow id="flow_72_phase3_S_uturn" type="civilianMix" route="r_W_to_S" begin="2700" end="3600" vehsPerHour="46.01229321241379" departLane="random" departSpeed="random" departPos="random_free" />
  <flow id="flow_73_phase3_E_straight" type="civilianMix" route="r_E_to_W" begin="2700" end="3600" vehsPerHour="235.56885258436202" departLane="random" departSpeed="random" departPos="random_free" />
  <flow id="flow_74_phase3_E_left" type="civilianMix" route="r_S_to_W" begin="2700" end="3600" vehsPerHour="90.551680727005" departLane="random" departSpeed="random" departPos="random_free" />
  <flow id="flow_75_phase3_E_right" type="civilianMix" route="r_E_to_N" begin="2700" end="3600" vehsPerHour="93.36941336631774" departLane="random" departSpeed="random" departPos="random_free" />
  <flow id="flow_76_phase3_E_uturn" type="civilianMix" route="r_E_to_E" begin="2700" end="3600" vehsPerHour="46.09234243512154" departLane="random" departSpeed="random" departPos="random_free" />
  <flow id="flow_77_phase3_W_straight" type="civilianMix" route="r_W_to_E" begin="2700" end="3600" vehsPerHour="226.65136917471884" departLane="random" departSpeed="random" departPos="random_free" />
  <flow id="flow_78_phase3_W_left" type="civilianMix" route="r_W_to_N" begin="2700" end="3600" vehsPerHour="88.0061154448986" departLane="random" departSpeed="random" departPos="random_free" />
  <flow id="flow_79_phase3_W_right" type="civilianMix" route="r_W_to_S" begin="2700" end="3600" vehsPerHour="92.37680300474167" departLane="random" departSpeed="random" departPos="random_free" />
  <flow id="flow_80_phase3_W_uturn" type="civilianMix" route="r_W_to_W" begin="2700" end="3600" vehsPerHour="45.820175077915195" departLane="random" departSpeed="random" departPos="random_free" />
</routes>