<?xml version='1.0' encoding='UTF-8'?>
<routes>
  <vTypeDistribution id="civilianMix">
    <vType id="moto" vClass="motorcycle" accel="2.6" decel="4.5" length="1.9" minGap="1.0" maxSpeed="16.0" sigma="0.5" speedFactor="normc(1.0,0.12,0.7,1.3)" color="0,255,0" probability="0.50" />
    <vType id="car" vClass="passenger" accel="2.6" decel="4.5" length="4.5" minGap="2.5" maxSpeed="20.0" sigma="0.5" speedFactor="normc(1.0,0.10,0.7,1.3)" color="255,0,0" probability="0.20" />
    <vType id="truck" vClass="truck" accel="1.3" decel="3.0" length="7.5" minGap="3.0" maxSpeed="16.0" sigma="0.6" speedFactor="normc(0.95,0.08,0.7,1.2)" color="255,165,0" probability="0.15" />
    <vType id="bus" vClass="bus" accel="1.2" decel="3.0" length="12.0" minGap="3.0" maxSpeed="16.0" sigma="0.6" speedFactor="normc(0.95,0.08,0.7,1.2)" color="0,128,255" probability="0.10" />
    <vType id="container" vClass="truck" accel="0.9" decel="2.5" length="14.0" minGap="3.5" maxSpeed="14.0" sigma="0.7" speedFactor="normc(0.9,0.07,0.7,1.15)" color="128,64,0" probability="0.04" />
    <vType id="emergency" vClass="emergency" accel="3.0" decel="5.0" length="5.0" minGap="1.5" maxSpeed="25.0" sigma="0.3" speedFactor="normc(1.1,0.05,0.9,1.2)" color="255,0,255" probability="0.01" />
  </vTypeDistribution>
  <route id="r_N_to_S" edges="N_in S_out" />
  <route id="r_N_to_E" edges="N_in E_out" />
  <route id="r_N_to_W" edges="N_in W_out" />
  <route id="r_N_to_N" edges="N_in N_out" />
  <route id="r_S_to_N" edges="S_in N_out" />
  <route id="r_S_to_W" edges="S_in W_out" />
  <route id="r_S_to_E" edges="S_in E_out" />
  <route id="r_S_to_S" edges="S_in S_out" />
  <route id="r_E_to_W" edges="E_in W_out" />
  <route id="r_E_to_S" edges="E_in S_out" />
  <route id="r_E_to_N" edges="E_in N_out" />
  <route id="r_E_to_E" edges="E_in E_out" />
  <route id="r_W_to_E" edges="W_in E_out" />
  <route id="r_W_to_N" edges="W_in N_out" />
  <route id="r_W_to_S" edges="W_in S_out" />
  <route id="r_W_to_W" edges="W_in W_out" />
  <flow id="flow_1_phase1_N_straight" type="civilianMix" route="r_S_to_W" begin="0" end="900" vehsPerHour="196.38913559926925" departLane="random" departSpeed="random" departPos="random_free" />
  <flow id="flow_2_phase1_N_left" type="civilianMix" route="r_N_to_E" begin="0" end="900" vehsPerHour="81.22872080215174" departLane="random" departSpeed="random" departPos="random_free" />
  <flow id="flow_3_phase1_N_right" type="civilianMix" route="r_N_to_W" begin="0" end="900" vehsPerHour="77.65622618253313" departLane="random" departSpeed="random" departPos="random_free" />
  <flow id="flow_4_phase1_N_uturn" type="civilianMix" route="r_N_to_N" begin="0" end="900" vehsPerHour="50" departLane="random" departSpeed="random" departPos="random_free" />
  <flow id="flow_5_phase1_S_straight" type="civilianMix" route="r_S_to_N" begin="0" end="900" vehsPerHour="200.64810957716753" departLane="random" departSpeed="random" departPos="random_free" />
  <flow id="flow_6_phase1_S_left" type="civilianMix" route="r_S_to_W" begin="0" end="900" vehsPerHour="79.35140990399923" departLane="random" departSpeed="random" departPos="random_free" />
  <flow id="flow_7_phase1_S_right" type="civilianMix" route="r_S_to_E" begin="0" end="900" vehsPerHour="81.69104363527886" departLane="random" departSpeed="random" departPos="random_free" />
  <flow id="flow_8_phase1_S_uturn" type="civilianMix" route="r_S_to_S" begin="0" end="900" vehsPerHour="50" departLane="random" departSpeed="random" departPos="random_free" />
  <flow id="flow_9_phase1_E_straight" type="civilianMix" route="r_E_to_W" begin="0" end="900" vehsPerHour="206.13994444340474" departLane="random" departSpeed="random" departPos="random_free" />
  <flow id="flow_10_phase1_E_left" type="civilianMix" route="r_E_to_S" begin="0" end="900" vehsPerHour="79.23933164142295" departLane="random" departSpeed="random" departPos="random_free" />
  <flow id="flow_11_phase1_E_right" type="civilianMix" route="r_E_to_N" begin="0" end="900" vehsPerHour="81.70505341810089" departLane="random" departSpeed="random" departPos="random_free" />
  <flow id="flow_12_phase1_E_uturn" type="civilianMix" route="r_E_to_E" begin="0" end="900" vehsPerHour="50" departLane="random" departSpeed="random" departPos="random_free" />
  <flow id="flow_13_phase1_W_straight" type="civilianMix" route="r_W_to_E" begin="0" end="900" vehsPerHour="198.33649541153193" departLane="random" departSpeed="random" departPos="random_free" />
  <flow id="flow_14_phase1_W_left" type="civilianMix" route="r_W_to_N" begin="0" end="900" vehsPerHour="77.01177617271958" departLane="random" departSpeed="random" departPos="random_free" />
  <flow id="flow_15_phase1_W_right" type="civilianMix" route="r_W_to_S" begin="0" end="900" vehsPerHour="80.8364468831348" departLane="random" departSpeed="random" departPos="random_free" />
  <flow id="flow_16_phase1_W_uturn" type="civilianMix" route="r_W_to_W" begin="0" end="900" vehsPerHour="50" departLane="random" departSpeed="random" departPos="random_free" />
  <flow id="flow_17_phase2a_N_straight" type="civilianMix" route="r_N_to_S" begin="900" end="1500" vehsPerHour="392.79228098136053" departLane="random" departSpeed="random" departPos="random_free" />
  <flow id="flow_18_phase2a_N_left" type="civilianMix" route="r_N_to_E" begin="900" end="1500" vehsPerHour="162.44343182148145" departLane="random" departSpeed="random" departPos="random_free" />
  <flow id="flow_19_phase2a_N_right" type="civilianMix" route="r_W_to_S" begin="900" end="1500" vehsPerHour="155.31245236506626" departLane="random" departSpeed="random" departPos="random_free" />
  <flow id="flow_20_phase2a_N_uturn" type="civilianMix" route="r_N_to_N" begin="900" end="1500" vehsPerHour="80.38813383282972" departLane="random" departSpeed="random" departPos="random_free" />
  <flow id="flow_21_phase2a_S_straight" type="civilianMix" route="r_S_to_N" begin="900" end="1500" vehsPerHour="401.31022893715704" departLane="random" departSpeed="random" departPos="random_free" />
  <flow id="flow_22_phase2a_S_left" type="civilianMix" route="r_W_to_S" begin="900" end="1500" vehsPerHour="158.70281980799845" departLane="random" departSpeed="random" departPos="random_free" />
  <flow id="flow_23_phase2a_S_right" type="civilianMix" route="r_S_to_E" begin="900" end="1500" vehsPerHour="163.38208727055772" departLane="random" departSpeed="random" departPos="random_free" />
  <flow id="flow_24_phase2a_S_uturn" type="civilianMix" route="r_S_to_S" begin="900" end="1500" vehsPerHour="80.54224144387209" departLane="random" departSpeed="random" departPos="random_free" />
  <flow id="flow_25_phase2a_E_straight" type="civilianMix" route="r_E_to_W" begin="900" end="1500" vehsPerHour="412.2938986696316" departLane="random" departSpeed="random" departPos="random_free" />
  <flow id="flow_26_phase2a_E_left" type="civilianMix" route="r_E_to_S" begin="900" end="1500" vehsPerHour="158.4786632828459" departLane="random" departSpeed="random" departPos="random_free" />
  <flow id="flow_27_phase2a_E_right" type="civilianMix" route="r_E_to_N" begin="900" end="1500" vehsPerHour="163.41010683620178" departLane="random" departSpeed="random" departPos="random_free" />
  <flow id="flow_28_phase2a_E_uturn" type="civilianMix" route="r_S_to_W" begin="900" end="1500" vehsPerHour="80.66832948927039" departLane="random" departSpeed="random" departPos="random_free" />
  <flow id="flow_29_phase2a_W_straight" type="civilianMix" route="r_W_to_E" begin="900" end="1500" vehsPerHour="396.6589810402419" departLane="random" departSpeed="random" departPos="random_free" />
  <flow id="flow_30_phase2a_W_left" type="civilianMix" route="r_W_to_N" begin="900" end="1500" vehsPerHour="154.02355234543916" departLane="random" departSpeed="random" departPos="random_free" />
  <flow id="flow_31_phase2a_W_right" type="civilianMix" route="r_W_to_S" begin="900" end="1500" vehsPerHour="161.65888398344757" departLane="random" departSpeed="random" departPos="random_free" />
  <flow id="flow_32_phase2a_W_uturn" type="civilianMix" route="r_N_to_S" begin="900" end="1500" vehsPerHour="80.1779870904992" departLane="random" departSpeed="random" departPos="random_free" />
  <flow id="flow_33_phase2b_N_straight" type="civilianMix" route="r_N_to_S" begin="1500" end="2100" vehsPerHour="490.98684878099516" departLane="random" departSpeed="random" departPos="random_free" />
  <flow id="flow_34_phase2b_N_left" type="civilianMix" route="r_N_to_E" begin="1500" end="2100" vehsPerHour="203.0577922225573" departLane="random" departSpeed="random" departPos="random_free" />
  <flow id="flow_35_phase2b_N_right" type="civilianMix" route="r_S_to_S" begin="1500" end="2100" vehsPerHour="194.14757034774388" departLane="random" departSpeed="random" departPos="random_free" />
  <flow id="flow_36_phase2b_N_uturn" type="civilianMix" route="r_N_to_N" begin="1500" end="2100" vehsPerHour="100.47816239962613" departLane="random" departSpeed="random" departPos="random_free" />
  <flow id="flow_37_phase2b_S_straight" type="civilianMix" route="r_S_to_N" begin="1500" end="2100" vehsPerHour="501.63428372574083" departLane="random" departSpeed="random" departPos="random_free" />
  <flow id="flow_38_phase2b_S_left" type="civilianMix" route="r_S_to_W" begin="1500" end="2100" vehsPerHour="198.37852475999804" departLane="random" departSpeed="random" departPos="random_free" />
  <flow id="flow_39_phase2b_S_right" type="civilianMix" route="r_S_to_E" begin="1500" end="2100" vehsPerHour="204.23461397960816" departLane="random" departSpeed="random" departPos="random_free" />
  <flow id="flow_40_phase2b_S_uturn" type="civilianMix" route="r_S_to_S" begin="1500" end="2100" vehsPerHour="100.67429935913461" departLane="random" departSpeed="random" departPos="random_free" />
  <flow id="flow_41_phase2b_E_straight" type="civilianMix" route="r_E_to_W" begin="1500" end="2100" vehsPerHour="515.3638708913339" departLane="random" departSpeed="random" departPos="random_free" />
  <flow id="flow_42_phase2b_E_left" type="civilianMix" route="r_E_to_S" begin="1500" end="2100" vehsPerHour="198.09832910355738" departLane="random" departSpeed="random" departPos="random_free" />
  <flow id="flow_43_phase2b_E_right" type="civilianMix" route="r_E_to_N" begin="1500" end="2100" vehsPerHour="204.26263354525224" departLane="random" departSpeed="random" departPos="random_free" />
  <flow id="flow_44_phase2b_E_uturn" type="civilianMix" route="r_E_to_E" begin="1500" end="2100" vehsPerHour="100.84241675299901" departLane="random" departSpeed="random" departPos="random_free" />
  <flow id="flow_45_phase2b_W_straight" type="civilianMix" route="r_W_to_E" begin="1500" end="2100" vehsPerHour="495.8342336374189" departLane="random" departSpeed="random" departPos="random_free" />
  <flow id="flow_46_phase2b_W_left" type="civilianMix" route="r_W_to_N" begin="1500" end="2100" vehsPerHour="192.52243554038793" departLane="random" departSpeed="random" departPos="random_free" />
  <flow id="flow_47_phase2b_W_right" type="civilianMix" route="r_W_to_S" begin="1500" end="2100" vehsPerHour="202.077107425015" departLane="random" departSpeed="random" departPos="random_free" />
  <flow id="flow_48_phase2b_W_uturn" type="civilianMix" route="r_W_to_W" begin="1500" end="2100" vehsPerHour="100.22598630882953" departLane="random" departSpeed="random" departPos="random_free" />
  <flow id="flow_49_phase2c_N_straight" type="civilianMix" route="r_N_to_S" begin="2100" end="2700" vehsPerHour="589.1814165806298" departLane="random" departSpeed="random" departPos="random_free" />
  <flow id="flow_50_phase2c_N_left" type="civilianMix" route="r_N_to_E" begin="2100" end="2700" vehsPerHour="243.6721526236332" departLane="random" departSpeed="random" departPos="random_free" />
  <flow id="flow_51_phase2c_N_right" type="civilianMix" route="r_N_to_W" begin="2100" end="2700" vehsPerHour="232.98268833042147" departLane="random" departSpeed="random" departPos="random_free" />
  <flow id="flow_52_phase2c_N_uturn" type="civilianMix" route="r_N_to_N" begin="2100" end="2700" vehsPerHour="120.56819096642255" departLane="random" departSpeed="random" departPos="random_free" />
  <flow id="flow_53_phase2c_S_straight" type="civilianMix" route="r_E_to_E" begin="2100" end="2700" vehsPerHour="601.9583385143246" departLane="random" departSpeed="random" departPos="random_free" />
  <flow id="flow_54_phase2c_S_left" type="civilianMix" route="r_W_to_W" begin="2100" end="2700" vehsPerHour="238.05422971199764" departLane="random" departSpeed="random" departPos="random_free" />
  <flow id="flow_55_phase2c_S_right" type="civilianMix" route="r_S_to_E" begin="2100" end="2700" vehsPerHour="245.0731309058366" departLane="random" departSpeed="random" departPos="random_free" />
  <flow id="flow_56_phase2c_S_uturn" type="civilianMix" route="r_S_to_S" begin="2100" end="2700" vehsPerHour="120.80635727439713" departLane="random" departSpeed="random" departPos="random_free" />
  <flow id="flow_57_phase2c_E_straight" type="civilianMix" route="r_E_to_W" begin="2100" end="2700" vehsPerHour="618.4338431130363" departLane="random" departSpeed="random" departPos="random_free" />
  <flow id="flow_58_phase2c_E_left" type="civilianMix" route="r_E_to_S" begin="2100" end="2700" vehsPerHour="237.71799492426885" departLane="random" departSpeed="random" departPos="random_free" />
  <flow id="flow_59_phase2c_E_right" type="civilianMix" route="r_E_to_N" begin="2100" end="2700" vehsPerHour="245.11516025430268" departLane="random" departSpeed="random" departPos="random_free" />
  <flow id="flow_60_phase2c_E_uturn" type="civilianMix" route="r_E_to_E" begin="2100" end="2700" vehsPerHour="121.01650401672762" departLane="random" departSpeed="random" departPos="random_free" />
  <flow id="flow_61_phase2c_W_straight" type="civilianMix" route="r_W_to_E" begin="2100" end="2700" vehsPerHour="594.9954764517738" departLane="random" departSpeed="random" departPos="random_free" />
  <flow id="flow_62_phase2c_W_left" type="civilianMix" route="r_W_to_N" begin="2100" end="2700" vehsPerHour="231.0213187353367" departLane="random" departSpeed="random" departPos="random_free" />
  <flow id="flow_63_phase2c_W_right" type="civilianMix" route="r_W_to_S" begin="2100" end="2700" vehsPerHour="242.49533086658238" departLane="random" departSpeed="random" departPos="random_free" />
  <flow id="flow_64_phase2c_W_uturn" type="civilianMix" route="r_W_to_W" begin="2100" end="2700" vehsPerHour="120.27398552715982" departLane="random" departSpeed="random" departPos="random_free" />
  <flow id="flow_65_phase3_N_straight" type="civilianMix" route="r_N_to_S" begin="2700" end="3600" vehsPerHour="196.38913559926925" departLane="random" departSpeed="random" departPos="random_free" />
  <flow id="flow_66_phase3_N_left" type="civilianMix" route="r_N_to_E" begin="2700" end="3600" vehsPerHour="81.22872080215174" departLane="random" departSpeed="random" departPos="random_free" />
  <flow id="flow_67_phase3_N_right" type="civilianMix" route="r_N_to_W" begin="2700" end="3600" vehsPerHour="77.65622618253313" departLane="random" departSpeed="random" departPos="random_free" />
  <flow id="flow_68_phase3_N_uturn" type="civilianMix" route="r_N_to_N" begin="2700" end="3600" vehsPerHour="50" departLane="random" departSpeed="random" departPos="random_free" />
  <flow id="flow_69_phase3_S_straight" type="civilianMix" route="r_S_to_N" begin="2700" end="3600" vehsPerHour="200.64810957716753" departLane="random" departSpeed="random" departPos="random_free" />
  <flow id="flow_70_phase3_S_left" type="civilianMix" route="r_S_to_W" begin="2700" end="3600" vehsPerHour="79.35140990399923" departLane="random" departSpeed="random" departPos="random_free" />
  <flow id="flow_71_phase3_S_right" type="civilianMix" route="r_S_to_E" begin="2700" end="3600" vehsPerHour="81.69104363527886" departLane="random" departSpeed="random" departPos="random_free" />
  <flow id="flow_72_phase3_S_uturn" type="civilianMix" route="r_S_to_S" begin="2700" end="3600" vehsPerHour="50" departLane="random" departSpeed="random" departPos="random_free" />
  <flow id="flow_73_phase3_E_straight" type="civilianMix" route="r_E_to_W" begin="2700" end="3600" vehsPerHour="206.13994444340474" departLane="random" departSpeed="random" departPos="random_free" />
  <flow id="flow_74_phase3_E_left" type="civilianMix" route="r_E_to_N" begin="2700" end="3600" vehsPerHour="79.23933164142295" departLane="random" departSpeed="random" departPos="random_free" />
  <flow id="flow_75_phase3_E_right" type="civilianMix" route="r_E_to_N" begin="2700" end="3600" vehsPerHour="81.70505341810089" departLane="random" departSpeed="random" departPos="random_free" />
  <flow id="flow_76_phase3_E_uturn" type="civilianMix" route="r_E_to_E" begin="2700" end="3600" vehsPerHour="50" departLane="random" departSpeed="random" departPos="random_free" />
  <flow id="flow_77_phase3_W_straight" type="civilianMix" route="r_W_to_E" begin="2700" end="3600" vehsPerHour="198.33649541153193" departLane="random" departSpeed="random" departPos="random_free" />
  <flow id="flow_78_phase3_W_left" type="civilianMix" route="r_S_to_E" begin="2700" end="3600" vehsPerHour="77.01177617271958" departLane="random" departSpeed="random" departPos="random_free" />
  <flow id="flow_79_phase3_W_right" type="civilianMix" route="r_W_to_S" begin="2700" end="3600" vehsPerHour="80.8364468831348" departLane="random" departSpeed="random" departPos="random_free" />
  <flow id="flow_80_phase3_W_uturn" type="civilianMix" route="r_W_to_W" begin="2700" end="3600" vehsPerHour="50" departLane="random" departSpeed="random" departPos="random_free" />
</routes>